11
Methyltin
C   -0.027  2.146  0.014 
Sn   0.002 -0.004  0.002 
C    1.042 -0.716  1.744 
Cl  -2.212 -0.821  0.019 
Cl   1.107 -0.765 -1.940 
H    0.996  2.523  0.006 
H   -0.554  2.507 -0.869 
H   -0.537  2.497  0.911 
H    0.532 -0.365  2.641 
H    1.057 -1.806  1.738 
H    2.065 -0.339  1.736 

